Circuit: * C:\Users\jiaqi\Downloads\radar_highpass.asc

Direct Newton iteration for .op point succeeded.

Date: Mon Jun 06 12:26:10 2022
Total elapsed time: 0.089 seconds.

tnom = 27
temp = 27
method = trap
totiter = 3
traniter = 0
tranpoints = 0
accept = 0
rejected = 0
matrix size = 8
fillins = 3
solver = Normal
Matrix Compiler1:      24 opcodes
Matrix Compiler2: 628 bytes object code size
